Hello Git!
This is my first file.
new line.
Joy Hamdy.
new line
